CM QFH.NEC
CM Analysis of a QFH antenna, D/H = 0.32
CM (c) 2004 John Coppens
CM  5   10        20        30        40        50        60        70        80
CM  I    I         I         I         I         I         I         I         I
CE
GW  1    5    0.0000   -0.1218    0.0000    0.0000    0.1218    0.0000    0.0040
GW  2    1    0.0000    0.1218    0.0000    0.0049    0.1327   -0.0098    0.0040
GW  3    1    0.0049    0.1327   -0.0098    0.0250    0.1304   -0.0500    0.0040
GW  4    1    0.0250    0.1304   -0.0500    0.0444    0.1251   -0.0901    0.0040
GW  5    1    0.0444    0.1251   -0.0901    0.0629    0.1170   -0.1303    0.0040
GW  6    1    0.0629    0.1170   -0.1303    0.0799    0.1061   -0.1704    0.0040
GW  7    1    0.0799    0.1061   -0.1704    0.0950    0.0928   -0.2106    0.0040
GW  8    1    0.0950    0.0928   -0.2106    0.1080    0.0773   -0.2508    0.0040
GW  9    1    0.1080    0.0773   -0.2508    0.1184    0.0601   -0.2909    0.0040
GW 10    1    0.1184    0.0601   -0.2909    0.1262    0.0415   -0.3311    0.0040
GW 11    1    0.1262    0.0415   -0.3311    0.1310    0.0219   -0.3712    0.0040
GW 12    1    0.1310    0.0219   -0.3712    0.1328    0.0018   -0.4114    0.0040
GW 13    1    0.1328    0.0018   -0.4114    0.1315   -0.0183   -0.4515    0.0040
GW 14    1    0.1315   -0.0183   -0.4515    0.1272   -0.0380   -0.4917    0.0040
GW 15    1    0.1272   -0.0380   -0.4917    0.1200   -0.0569   -0.5319    0.0040
GW 16    1    0.1200   -0.0569   -0.5319    0.1100   -0.0744   -0.5720    0.0040
GW 17    1    0.1100   -0.0744   -0.5720    0.0975   -0.0902   -0.6122    0.0040
GW 18    1    0.0975   -0.0902   -0.6122    0.0827   -0.1039   -0.6523    0.0040
GW 19    1    0.0827   -0.1039   -0.6523    0.0660   -0.1152   -0.6925    0.0040
GW 20    1    0.0660   -0.1152   -0.6925    0.0478   -0.1239   -0.7326    0.0040
GW 21    1    0.0478   -0.1239   -0.7326    0.0285   -0.1297   -0.7728    0.0040
GW 22    1    0.0285   -0.1297   -0.7728    0.0085   -0.1325   -0.8130    0.0040
GW 23    1    0.0085   -0.1325   -0.8130   -0.0000   -0.1218   -0.8299    0.0040
GW 24    5   -0.0000   -0.1218   -0.8299    0.0000    0.1218   -0.8299    0.0040
GW 25    1    0.0000    0.1218   -0.8299   -0.0085    0.1325   -0.8130    0.0040
GW 26    1   -0.0085    0.1325   -0.8130   -0.0285    0.1297   -0.7728    0.0040
GW 27    1   -0.0285    0.1297   -0.7728   -0.0478    0.1239   -0.7326    0.0040
GW 28    1   -0.0478    0.1239   -0.7326   -0.0660    0.1152   -0.6925    0.0040
GW 29    1   -0.0660    0.1152   -0.6925   -0.0827    0.1039   -0.6523    0.0040
GW 30    1   -0.0827    0.1039   -0.6523   -0.0975    0.0902   -0.6122    0.0040
GW 31    1   -0.0975    0.0902   -0.6122   -0.1100    0.0744   -0.5720    0.0040
GW 32    1   -0.1100    0.0744   -0.5720   -0.1200    0.0569   -0.5319    0.0040
GW 33    1   -0.1200    0.0569   -0.5319   -0.1272    0.0380   -0.4917    0.0040
GW 34    1   -0.1272    0.0380   -0.4917   -0.1315    0.0183   -0.4515    0.0040
GW 35    1   -0.1315    0.0183   -0.4515   -0.1328   -0.0018   -0.4114    0.0040
GW 36    1   -0.1328   -0.0018   -0.4114   -0.1310   -0.0219   -0.3712    0.0040
GW 37    1   -0.1310   -0.0219   -0.3712   -0.1262   -0.0415   -0.3311    0.0040
GW 38    1   -0.1262   -0.0415   -0.3311   -0.1184   -0.0601   -0.2909    0.0040
GW 39    1   -0.1184   -0.0601   -0.2909   -0.1080   -0.0773   -0.2508    0.0040
GW 40    1   -0.1080   -0.0773   -0.2508   -0.0950   -0.0928   -0.2106    0.0040
GW 41    1   -0.0950   -0.0928   -0.2106   -0.0799   -0.1061   -0.1704    0.0040
GW 42    1   -0.0799   -0.1061   -0.1704   -0.0629   -0.1170   -0.1303    0.0040
GW 43    1   -0.0629   -0.1170   -0.1303   -0.0444   -0.1251   -0.0901    0.0040
GW 44    1   -0.0444   -0.1251   -0.0901   -0.0250   -0.1304   -0.0500    0.0040
GW 45    1   -0.0250   -0.1304   -0.0500   -0.0049   -0.1327   -0.0098    0.0040
GW 46    1   -0.0049   -0.1327   -0.0098    0.0000   -0.1218    0.0000    0.0040
GM  0    0       0.0       0.0      90.0       0.0       0.0     0.001
GW 47    5    0.0000   -0.1152    0.0000    0.0000    0.1152    0.0000    0.0040
GW 48    1    0.0000    0.1152    0.0000    0.0049    0.1261   -0.0098    0.0040
GW 49    1    0.0049    0.1261   -0.0098    0.0239    0.1239   -0.0479    0.0040
GW 50    1    0.0239    0.1239   -0.0479    0.0424    0.1188   -0.0860    0.0040
GW 51    1    0.0424    0.1188   -0.0860    0.0599    0.1111   -0.1241    0.0040
GW 52    1    0.0599    0.1111   -0.1241    0.0760    0.1007   -0.1622    0.0040
GW 53    1    0.0760    0.1007   -0.1622    0.0903    0.0881   -0.2003    0.0040
GW 54    1    0.0903    0.0881   -0.2003    0.1026    0.0734   -0.2383    0.0040
GW 55    1    0.1026    0.0734   -0.2383    0.1125    0.0571   -0.2764    0.0040
GW 56    1    0.1125    0.0571   -0.2764    0.1198    0.0394   -0.3145    0.0040
GW 57    1    0.1198    0.0394   -0.3145    0.1244    0.0208   -0.3526    0.0040
GW 58    1    0.1244    0.0208   -0.3526    0.1262    0.0018   -0.3907    0.0040
GW 59    1    0.1262    0.0018   -0.3907    0.1250   -0.0173   -0.4288    0.0040
GW 60    1    0.1250   -0.0173   -0.4288    0.1209   -0.0360   -0.4669    0.0040
GW 61    1    0.1209   -0.0360   -0.4669    0.1141   -0.0538   -0.5049    0.0040
GW 62    1    0.1141   -0.0538   -0.5049    0.1046   -0.0705   -0.5430    0.0040
GW 63    1    0.1046   -0.0705   -0.5430    0.0928   -0.0855   -0.5811    0.0040
GW 64    1    0.0928   -0.0855   -0.5811    0.0788   -0.0985   -0.6192    0.0040
GW 65    1    0.0788   -0.0985   -0.6192    0.0630   -0.1093   -0.6573    0.0040
GW 66    1    0.0630   -0.1093   -0.6573    0.0458   -0.1176   -0.6954    0.0040
GW 67    1    0.0458   -0.1176   -0.6954    0.0275   -0.1231   -0.7335    0.0040
GW 68    1    0.0275   -0.1231   -0.7335    0.0085   -0.1259   -0.7715    0.0040
GW 69    1    0.0085   -0.1259   -0.7715   -0.0000   -0.1152   -0.7885    0.0040
GW 70    5   -0.0000   -0.1152   -0.7885    0.0000    0.1152   -0.7885    0.0040
GW 71    1    0.0000    0.1152   -0.7885   -0.0085    0.1259   -0.7715    0.0040
GW 72    1   -0.0085    0.1259   -0.7715   -0.0275    0.1231   -0.7335    0.0040
GW 73    1   -0.0275    0.1231   -0.7335   -0.0458    0.1176   -0.6954    0.0040
GW 74    1   -0.0458    0.1176   -0.6954   -0.0630    0.1093   -0.6573    0.0040
GW 75    1   -0.0630    0.1093   -0.6573   -0.0788    0.0985   -0.6192    0.0040
GW 76    1   -0.0788    0.0985   -0.6192   -0.0928    0.0855   -0.5811    0.0040
GW 77    1   -0.0928    0.0855   -0.5811   -0.1046    0.0705   -0.5430    0.0040
GW 78    1   -0.1046    0.0705   -0.5430   -0.1141    0.0538   -0.5049    0.0040
GW 79    1   -0.1141    0.0538   -0.5049   -0.1209    0.0360   -0.4669    0.0040
GW 80    1   -0.1209    0.0360   -0.4669   -0.1250    0.0173   -0.4288    0.0040
GW 81    1   -0.1250    0.0173   -0.4288   -0.1262   -0.0018   -0.3907    0.0040
GW 82    1   -0.1262   -0.0018   -0.3907   -0.1244   -0.0208   -0.3526    0.0040
GW 83    1   -0.1244   -0.0208   -0.3526   -0.1198   -0.0394   -0.3145    0.0040
GW 84    1   -0.1198   -0.0394   -0.3145   -0.1125   -0.0571   -0.2764    0.0040
GW 85    1   -0.1125   -0.0571   -0.2764   -0.1026   -0.0734   -0.2383    0.0040
GW 86    1   -0.1026   -0.0734   -0.2383   -0.0903   -0.0881   -0.2003    0.0040
GW 87    1   -0.0903   -0.0881   -0.2003   -0.0760   -0.1007   -0.1622    0.0040
GW 88    1   -0.0760   -0.1007   -0.1622   -0.0599   -0.1111   -0.1241    0.0040
GW 89    1   -0.0599   -0.1111   -0.1241   -0.0424   -0.1188   -0.0860    0.0040
GW 90    1   -0.0424   -0.1188   -0.0860   -0.0239   -0.1239   -0.0479    0.0040
GW 91    1   -0.0239   -0.1239   -0.0479   -0.0049   -0.1261   -0.0098    0.0040
GW 92    1   -0.0049   -0.1261   -0.0098    0.0000   -0.1152    0.0000    0.0040
GE 0
GN -1
FR  0    1    0    0    137.50       0.0
EX  5    1    3    0       1.0       0.0
EX  5   47    3    0      -1.0       0.0
RP  0   35   35 1001       0.0       0.0      10.0      10.0
EN
